18
Atoms. File created from networkx graph by get_decomposition_calc_SRO1.py_edited_by_hand
Ga 0.0 0.0 0.0
In 1.59 0.917986928012 2.583
In 0.0 0.0 5.166
Ga 1.59 0.917986928012 7.749
Ga 0.0 0.0 10.332
Ga 1.59 0.917986928012 12.915
Ga 1.59 2.75396078403 0.0
In 3.18 3.67194771205 2.583
Ga 1.59 2.75396078403 5.166
In 3.18 3.67194771205 7.749
Ga 1.59 2.75396078403 10.332
Ga 3.18 3.67194771205 12.915
Ga 3.18 5.50792156807 0.0
In 4.77 6.42590849608 2.583
In 3.18 5.50792156807 5.166
Ga 4.77 6.42590849608 7.749