54
Atoms. File created from networkx graph by get_decomposition_calc_SRO1.py
Ga 0.0 0.0 0.0
Ga 1.59 0.9179869280115049 2.583
In 0.0 0.0 5.166
In 1.59 0.9179869280115049 7.7490000000000006
Ga 0.0 0.0 10.332
Ga 1.59 0.9179869280115049 12.915000000000001
Ga 1.59 2.753960784034515 0.0
In 3.18 3.6719477120460198 2.583
Ga 1.59 2.753960784034515 5.166
In 3.18 3.6719477120460198 7.7490000000000006
Ga 1.59 2.753960784034515 10.332
Ga 3.18 3.6719477120460198 12.915000000000001
Ga 3.18 5.50792156806903 0.0
Ga 4.7700000000000005 6.425908496080535 2.583
In 3.18 5.50792156806903 5.166
Ga 4.7700000000000005 6.425908496080535 7.7490000000000006
Ga 3.18 5.50792156806903 10.332
Ga 4.7700000000000005 6.425908496080535 12.915000000000001
Ga 3.18 0.0 0.0
Ga 4.7700000000000005 0.9179869280115049 2.583
In 3.18 0.0 5.166
In 4.7700000000000005 0.9179869280115049 7.7490000000000006
Ga 3.18 0.0 10.332
Ga 4.7700000000000005 0.9179869280115049 12.915000000000001
Ga 4.7700000000000005 2.753960784034515 0.0
Ga 6.36 3.6719477120460198 2.583
In 4.7700000000000005 2.753960784034515 5.166
In 6.36 3.6719477120460198 7.7490000000000006
Ga 4.7700000000000005 2.753960784034515 10.332
Ga 6.36 3.6719477120460198 12.915000000000001
Ga 6.36 5.50792156806903 0.0
Ga 7.95 6.425908496080535 2.583
In 6.36 5.50792156806903 5.166
In 7.95 6.425908496080535 7.7490000000000006
Ga 6.36 5.50792156806903 10.332
Ga 7.95 6.425908496080535 12.915000000000001
Ga 6.36 0.0 0.0
In 7.95 0.9179869280115049 2.583
In 6.36 0.0 5.166
In 7.95 0.9179869280115049 7.7490000000000006
Ga 6.36 0.0 10.332
Ga 7.95 0.9179869280115049 12.915000000000001
Ga 7.95 2.753960784034515 0.0
Ga 9.540000000000001 3.6719477120460198 2.583
In 7.95 2.753960784034515 5.166
In 9.540000000000001 3.6719477120460198 7.7490000000000006
Ga 7.95 2.753960784034515 10.332
Ga 9.540000000000001 3.6719477120460198 12.915000000000001
Ga 9.540000000000001 5.50792156806903 0.0
Ga 11.13 6.425908496080535 2.583
In 9.540000000000001 5.50792156806903 5.166
In 11.13 6.425908496080535 7.7490000000000006
Ga 9.540000000000001 5.50792156806903 10.332
Ga 11.13 6.425908496080535 12.915000000000001
